<?xml version="1.0" encoding="UTF-8"?>

<!-- generated on 2023-11-26 21:54:12 by Eclipse SUMO sumo Version 1.19.0
-->

<configuration xmlns:xsi="http://www.w3.org/2001/XMLSchema-instance" xsi:noNamespaceSchemaLocation="http://sumo.dlr.de/xsd/sumoConfiguration.xsd">

    <input>
        <net-file value="olympics.net.xml"/>
        <route-files value="olympics.rou.xml"/>
    </input>
    <processing>
    <lateral-resolution value="1." />
    </processing>
</configuration>
